file 8740 1734471637                                            
version 2
run BlackIce-Backend-0-20241217-21:38:43-161863
attr configname BlackIce-Backend
attr datetime 20241217-21:38:43
attr experiment BlackIce-Backend
attr inifile omnetpp.ini
attr iterationvars ""
attr iterationvarsf ""
attr measurement ""
attr network artery.lte.World
attr processid 161863
attr repetition 0
attr replication #0
attr resultdir results
attr runnumber 0
attr seedset 0
param *.node[*].numUdpApps 1
param *.node[*].udpApp[0].typename "\"LocationPingReporter\""
param *.node[*].udpApp[*].centralAddress "\"server\""
param *.node[*].udpApp[*].middlewareModule "\"^.middleware\""
param *.server.numUdpApps 1
param *.server.udpApp[0].typename "\"LocationPingCentral\""
param *.Myrsu[*].numUdpApps 1
param *.Myrsu[*].middleware.datetime "\"2024-01-01 15:00:00\""
param *.Myrsu[*].middleware.services "xmldoc(\"rsuservices.xml\")"
param *.Myrsu[*].middleware.EmergencyServiceRSU.useCases "xmldoc(\"usecases.xml\")"
param *.Myrsu[0].udpApp[0].typename "\"LocationPingWarner\""
param *.Myrsu[1].udpApp[0].typename "\"Emergency_Service_MQTT\""
param *.Myrsu[*].udpApp[*].centralAddress "\"server\""
param *.Myrsu[*].udpApp[*].middlewareModule "\"^.middleware\""
param *.Myrsu[*].mobilityType "\"StationaryMobility\""
param *.Myrsu[*].mobility.initialZ 10m
param *.Myrsu[0].mobility.initialX 100m
param *.Myrsu[0].mobility.initialY 100m
param *.Myrsu[1].mobility.initialX 310m
param *.Myrsu[1].mobility.initialY 300m
param *.traci.core.version -1
param *.traci.launcher.typename "\"PosixLauncher\""
param *.traci.launcher.sumocfg "\"TesteNew.sumocfg\""
param *.traci.launcher.sumo "\"sumo-gui\""
param *.annotations.draw true
param *.withStoryboard true
param *.storyboard.python "\"story\""
param *.channelControl.pMax 10W
param *.channelControl.alpha 1.0
param *.channelControl.carrierFrequency "2.1 GHz"
param *.configurator.config "xmldoc(\"lte_network.xml\")"
param *.numLteBaseStations 1
param *.numLteRSUStations 2
param *.eNodeB[*].lteNic.phy.feedbackComputation "xmldoc(\"lte_channel.xml\")"
param *.eNodeB[*].lteNic.phy.channelModel "xmldoc(\"lte_channel.xml\")"
param *.eNodeB[*].lteNic.phy.dynamicCellAssociation true
param *.eNodeB[*].lteNic.phy.enableHandover true
param *.eNodeB[*].cellInfo.broadcastMessageInterval "0.5 s"
param *.eNodeB[*].sctp.nagleEnabled false
param *.eNodeB[*].sctp.enableHeartbeats false
param *.eNodeB[0].mobility.initialX 125m
param *.eNodeB[0].mobility.initialY 125m
param *.node[*].lteNic.dlFbGen.feedbackComputation "xmldoc(\"lte_channel.xml\")"
param *.node[*].lteNic.phy.channelModel "xmldoc(\"lte_channel.xml\")"
param *.node[*].lteNic.phy.dynamicCellAssociation true
param *.node[*].lteNic.phy.enableHandover true
param *.node[*].masterId 1
param *.node[*].macCellId 1
param *.node[*].wlan[*].typename "\"VanetNic\""
param *.node[*].wlan[*].radio.channelNumber 180
param *.node[*].wlan[*].radio.carrierFrequency "5.9 GHz"
param *.node[*].wlan[*].radio.transmitter.power "200 mW"
param *.node[*].middleware.updateInterval "0.1 s"
param *.node[*].middleware.datetime "\"2024-01-01 15:00:00\""
param *.node[*].middleware.services "xml(\"<services />\")"

vector 0 World.eNodeB[0].pppIf.queue queueLength:vector ETV
attr interpolationmode sample-hold
attr title "queue length, vector"
vector 1 World.eNodeB[0].pppIf.ppp txState:vector ETV
attr interpolationmode sample-hold
attr title "tx state, vector"
vector 2 World.pgw.ppp[0].queue queueLength:vector ETV
attr interpolationmode sample-hold
attr title "queue length, vector"
vector 3 World.pgw.ppp[0].ppp txState:vector ETV
attr interpolationmode sample-hold
attr title "tx state, vector"
vector 4 World.pgw.pppInterface.queue queueLength:vector ETV
attr interpolationmode sample-hold
attr title "queue length, vector"
vector 5 World.pgw.pppInterface.ppp txState:vector ETV
attr interpolationmode sample-hold
attr title "tx state, vector"
vector 6 World.server.ppp[0].queue queueLength:vector ETV
attr interpolationmode sample-hold
attr title "queue length, vector"
vector 7 World.server.ppp[0].ppp txState:vector ETV
attr interpolationmode sample-hold
attr title "tx state, vector"
vector 8 World.router.ppp[0].queue queueLength:vector ETV
attr interpolationmode sample-hold
attr title "queue length, vector"
vector 9 World.router.ppp[0].ppp txState:vector ETV
attr interpolationmode sample-hold
attr title "tx state, vector"
vector 10 World.router.ppp[1].queue queueLength:vector ETV
attr interpolationmode sample-hold
attr title "queue length, vector"
vector 11 World.router.ppp[1].ppp txState:vector ETV
attr interpolationmode sample-hold
attr title "tx state, vector"
vector 12 World.router.ppp[2].queue queueLength:vector ETV
attr interpolationmode sample-hold
attr title "queue length, vector"
vector 13 World.router.ppp[2].ppp txState:vector ETV
attr interpolationmode sample-hold
attr title "tx state, vector"
vector 14 World.router.ppp[3].queue queueLength:vector ETV
attr interpolationmode sample-hold
attr title "queue length, vector"
vector 15 World.router.ppp[3].ppp txState:vector ETV
attr interpolationmode sample-hold
attr title "tx state, vector"
vector 16 World.Myrsu[0].PPPIntf.queue queueLength:vector ETV
attr interpolationmode sample-hold
attr title "queue length, vector"
vector 17 World.Myrsu[0].PPPIntf.ppp txState:vector ETV
attr interpolationmode sample-hold
attr title "tx state, vector"
vector 18 World.Myrsu[1].PPPIntf.queue queueLength:vector ETV
attr interpolationmode sample-hold
attr title "queue length, vector"
vector 19 World.Myrsu[1].PPPIntf.ppp txState:vector ETV
attr interpolationmode sample-hold
attr title "tx state, vector"
vector 20 World.Myrsu[0].wlan[0].radio radioMode:vector ETV
attr interpolationmode sample-hold
attr source radioModeChanged
attr title "Radio mode, vector"
vector 21 World.Myrsu[0].wlan[0].radio radioChannel:vector ETV
attr interpolationmode sample-hold
attr source radioChannelChanged
attr title "Radio channel, vector"
vector 22 World.Myrsu[1].wlan[0].radio radioMode:vector ETV
attr interpolationmode sample-hold
attr source radioModeChanged
attr title "Radio mode, vector"
vector 23 World.Myrsu[1].wlan[0].radio radioChannel:vector ETV
attr interpolationmode sample-hold
attr source radioChannelChanged
attr title "Radio channel, vector"
vector 24 World.Myrsu[0].wlan[0].radio receptionState:vector ETV
attr interpolationmode sample-hold
attr source receptionStateChanged
attr title "Radio reception state, vector"
vector 25 World.Myrsu[1].wlan[0].radio receptionState:vector ETV
attr interpolationmode sample-hold
attr source receptionStateChanged
attr title "Radio reception state, vector"
vector 26 World.Myrsu[0].wlan[0].mac.dcf.channelAccess.contention state:vector ETV
attr interpolationmode none
attr source stateChanged
attr title "contention state, vector"
vector 27 World.Myrsu[0].wlan[0].mac.hcf.edca.edcaf[0].contention state:vector ETV
attr interpolationmode none
attr source stateChanged
attr title "contention state, vector"
vector 28 World.Myrsu[0].wlan[0].mac.hcf.edca.edcaf[1].contention state:vector ETV
attr interpolationmode none
attr source stateChanged
attr title "contention state, vector"
vector 29 World.Myrsu[0].wlan[0].mac.hcf.edca.edcaf[2].contention state:vector ETV
attr interpolationmode none
attr source stateChanged
attr title "contention state, vector"
vector 30 World.Myrsu[0].wlan[0].mac.hcf.edca.edcaf[3].contention state:vector ETV
attr interpolationmode none
attr source stateChanged
attr title "contention state, vector"
vector 31 World.Myrsu[1].wlan[0].mac.dcf.channelAccess.contention state:vector ETV
attr interpolationmode none
attr source stateChanged
attr title "contention state, vector"
vector 32 World.Myrsu[1].wlan[0].mac.hcf.edca.edcaf[0].contention state:vector ETV
attr interpolationmode none
attr source stateChanged
attr title "contention state, vector"
vector 33 World.Myrsu[1].wlan[0].mac.hcf.edca.edcaf[1].contention state:vector ETV
attr interpolationmode none
attr source stateChanged
attr title "contention state, vector"
vector 34 World.Myrsu[1].wlan[0].mac.hcf.edca.edcaf[2].contention state:vector ETV
attr interpolationmode none
attr source stateChanged
attr title "contention state, vector"
vector 35 World.Myrsu[1].wlan[0].mac.hcf.edca.edcaf[3].contention state:vector ETV
attr interpolationmode none
attr source stateChanged
attr title "contention state, vector"
0	8313 8 0 0 0 0 1 0 0 0 0
1	8321 8 0 0 0 0 1 0 0 0 0
2	8329 8 0 0 0 0 1 0 0 0 0
3	8337 8 0 0 0 0 1 0 0 0 0
4	8345 8 0 0 0 0 1 0 0 0 0
5	8353 8 0 0 0 0 1 0 0 0 0
6	8361 8 0 0 0 0 1 0 0 0 0
7	8369 8 0 0 0 0 1 0 0 0 0
8	8377 8 0 0 0 0 1 0 0 0 0
9	8385 8 0 0 0 0 1 0 0 0 0
10	8393 9 0 0 0 0 1 0 0 0 0
11	8402 9 0 0 0 0 1 0 0 0 0
12	8411 9 0 0 0 0 1 0 0 0 0
13	8420 9 0 0 0 0 1 0 0 0 0
14	8429 9 0 0 0 0 1 0 0 0 0
15	8438 9 0 0 0 0 1 0 0 0 0
16	8447 9 0 0 0 0 1 0 0 0 0
17	8456 9 0 0 0 0 1 0 0 0 0
18	8465 9 0 0 0 0 1 0 0 0 0
19	8474 9 0 0 0 0 1 0 0 0 0
20	8483 18 0 0 0 0 2 0 2 2 4
21	8501 11 0 0 0 0 1 180 180 180 32400
22	8512 18 0 0 0 0 2 0 2 2 4
23	8530 11 0 0 0 0 1 180 180 180 32400
24	8541 9 0 0 0 0 1 1 1 1 1
25	8550 9 0 0 0 0 1 1 1 1 1
26	8559 18 0 0 0 0 2 0 0 0 0
27	8577 18 0 0 0 0 2 0 0 0 0
28	8595 18 0 0 0 0 2 0 0 0 0
29	8613 18 0 0 0 0 2 0 0 0 0
30	8631 18 0 0 0 0 2 0 0 0 0
31	8649 18 0 0 0 0 2 0 0 0 0
32	8667 18 0 0 0 0 2 0 0 0 0
33	8685 18 0 0 0 0 2 0 0 0 0
34	8703 18 0 0 0 0 2 0 0 0 0
35	8721 18 0 0 0 0 2 0 0 0 0

